<?xml version="1.0" encoding="UTF-8"?>

<!-- generated on 2022-12-02 11:58:16 by Eclipse SUMO netedit Version 1.15.0
<configuration xmlns:xsi="http://www.w3.org/2001/XMLSchema-instance" xsi:noNamespaceSchemaLocation="http://sumo.dlr.de/xsd/netconvertConfiguration.xsd">

    <input>
        <sumo-net-file value="C:\Users\oangah\PycharmProjects\partition\mfd-queuing-idue\data\circles.net.xml"/>
    </input>

    <output>
        <output-file value="C:\Users\oangah\PycharmProjects\partition\mfd-queuing-idue\data\circles.net.xml"/>
    </output>

    <processing>
        <geometry.min-radius.fix.railways value="false"/>
        <geometry.max-grade.fix value="false"/>
        <offset.disable-normalization value="true"/>
        <lefthand value="0"/>
    </processing>

    <junctions>
        <no-turnarounds value="true"/>
        <junctions.corner-detail value="5"/>
        <junctions.limit-turn-speed value="5.50"/>
        <rectangular-lane-cut value="0"/>
    </junctions>

    <pedestrian>
        <walkingareas value="0"/>
    </pedestrian>

</configuration>
-->

<net version="1.9" junctionCornerDetail="5" limitTurnSpeed="5.50" xmlns:xsi="http://www.w3.org/2001/XMLSchema-instance" xsi:noNamespaceSchemaLocation="http://sumo.dlr.de/xsd/net_file.xsd">

    <location netOffset="-546642.00,-5268695.21" convBoundary="2833.72,6164.31,3129.84,6379.85" origBoundary="-123.397980,47.511477,-122.299968,48.424863" projParameter="+proj=utm +zone=10 +ellps=WGS84 +datum=WGS84 +units=m +no_defs"/>

    <type id="highway.bridleway" priority="1" numLanes="1" speed="2.78" allow="pedestrian" oneway="1" width="2.00"/>
    <type id="highway.bus_guideway" priority="1" numLanes="1" speed="27.78" allow="bus" oneway="1"/>
    <type id="highway.cycleway" priority="1" numLanes="1" speed="8.33" allow="bicycle" oneway="1" width="1.00"/>
    <type id="highway.footway" priority="1" numLanes="1" speed="2.78" allow="pedestrian" oneway="1" width="2.00"/>
    <type id="highway.ford" priority="1" numLanes="1" speed="2.78" allow="army" oneway="1"/>
    <type id="highway.living_street" priority="3" numLanes="1" speed="2.78" disallow="pedestrian tram rail_urban rail_electric ship" oneway="1"/>
    <type id="highway.motorway" priority="13" numLanes="2" speed="44.44" allow="private emergency authority army vip passenger hov taxi bus coach delivery truck trailer motorcycle evehicle custom1 custom2" oneway="1"/>
    <type id="highway.motorway_link" priority="12" numLanes="1" speed="22.22" allow="private emergency authority army vip passenger hov taxi bus coach delivery truck trailer motorcycle evehicle custom1 custom2" oneway="1"/>
    <type id="highway.path" priority="1" numLanes="1" speed="2.78" allow="pedestrian bicycle" oneway="1" width="2.00"/>
    <type id="highway.pedestrian" priority="1" numLanes="1" speed="2.78" allow="pedestrian" oneway="1" width="2.00"/>
    <type id="highway.primary" priority="9" numLanes="2" speed="27.78" disallow="pedestrian tram rail_urban rail_electric ship" oneway="1"/>
    <type id="highway.primary_link" priority="8" numLanes="1" speed="22.22" disallow="pedestrian tram rail_urban rail_electric ship" oneway="1"/>
    <type id="highway.raceway" priority="14" numLanes="2" speed="83.33" allow="vip" oneway="1"/>
    <type id="highway.residential" priority="4" numLanes="1" speed="13.89" disallow="pedestrian tram rail_urban rail_electric ship" oneway="1"/>
    <type id="highway.secondary" priority="7" numLanes="2" speed="27.78" disallow="pedestrian tram rail_urban rail_electric ship" oneway="1"/>
    <type id="highway.secondary_link" priority="6" numLanes="1" speed="22.22" disallow="pedestrian tram rail_urban rail_electric ship" oneway="1"/>
    <type id="highway.service" priority="2" numLanes="1" speed="5.56" allow="private vip pedestrian passenger hov taxi delivery bicycle evehicle" oneway="1"/>
    <type id="highway.stairs" priority="1" numLanes="1" speed="1.39" allow="pedestrian" oneway="1" width="2.00"/>
    <type id="highway.step" priority="1" numLanes="1" speed="1.39" allow="pedestrian" oneway="1" width="2.00"/>
    <type id="highway.steps" priority="1" numLanes="1" speed="1.39" allow="pedestrian" oneway="1" width="2.00"/>
    <type id="highway.tertiary" priority="6" numLanes="1" speed="22.22" disallow="pedestrian tram rail_urban rail_electric ship" oneway="1"/>
    <type id="highway.tertiary_link" priority="5" numLanes="1" speed="22.22" disallow="pedestrian tram rail_urban rail_electric ship" oneway="1"/>
    <type id="highway.track" priority="1" numLanes="1" speed="5.56" disallow="pedestrian tram rail_urban rail_electric ship" oneway="1"/>
    <type id="highway.trunk" priority="11" numLanes="2" speed="27.78" disallow="pedestrian bicycle tram rail_urban rail rail_electric ship" oneway="1"/>
    <type id="highway.trunk_link" priority="10" numLanes="1" speed="22.22" disallow="pedestrian bicycle tram rail_urban rail rail_electric ship" oneway="1"/>
    <type id="highway.unclassified" priority="5" numLanes="1" speed="13.89" disallow="pedestrian tram rail_urban rail_electric ship" oneway="1"/>
    <type id="highway.unsurfaced" priority="1" numLanes="1" speed="8.33" disallow="pedestrian tram rail_urban rail_electric ship" oneway="1"/>
    <type id="railway.light_rail" priority="15" numLanes="1" speed="27.78" allow="rail_urban" oneway="1"/>
    <type id="railway.preserved" priority="15" numLanes="1" speed="27.78" allow="rail" oneway="1"/>
    <type id="railway.rail" priority="15" numLanes="1" speed="83.33" allow="rail rail_electric" oneway="1"/>
    <type id="railway.subway" priority="15" numLanes="1" speed="27.78" allow="rail_urban" oneway="1"/>
    <type id="railway.tram" priority="15" numLanes="1" speed="13.89" allow="tram" oneway="1"/>

    <edge id=":J10_0" function="internal">
        <lane id=":J10_0_0" index="0" disallow="pedestrian" speed="3.98" length="1.87" shape="3127.25,6250.45 3127.53,6250.05 3127.66,6249.62 3127.65,6249.18 3127.50,6248.71"/>
    </edge>
    <edge id=":J11_0" function="internal">
        <lane id=":J11_0_0" index="0" disallow="pedestrian" speed="4.02" length="1.69" shape="3092.12,6172.64 3091.89,6172.27 3091.60,6171.99 3091.23,6171.81 3090.81,6171.72"/>
    </edge>
    <edge id=":J12_0" function="internal">
        <lane id=":J12_0_0" index="0" disallow="pedestrian" speed="13.89" length="0.70" shape="3021.67,6165.96 3021.46,6165.95 3021.32,6165.95 3021.18,6165.99 3020.99,6166.06"/>
    </edge>
    <edge id=":J13_0" function="internal">
        <lane id=":J13_0_0" index="0" disallow="pedestrian" speed="4.34" length="1.12" shape="2955.19,6190.17 2954.88,6190.29 2954.69,6190.41 2954.53,6190.58 2954.36,6190.86"/>
    </edge>
    <edge id=":J14_0" function="internal">
        <lane id=":J14_0_0" index="0" disallow="pedestrian" speed="10.04" length="12.89" shape="2940.24,6214.89 2937.96,6219.09 2936.52,6222.48 2935.94,6225.06 2936.20,6226.82"/>
    </edge>
    <edge id=":J14_1" function="internal">
        <lane id=":J14_1_0" index="0" disallow="pedestrian" speed="5.65" length="4.40" shape="2930.31,6224.19 2931.89,6223.36 2933.40,6223.52 2934.26,6224.21"/>
    </edge>
    <edge id=":J14_2" function="internal">
        <lane id=":J14_2_0" index="0" disallow="pedestrian" speed="5.65" length="3.29" shape="2934.26,6224.21 2934.83,6224.67 2936.20,6226.82"/>
    </edge>
    <edge id=":J15_0" function="internal">
        <lane id=":J15_0_0" index="0" disallow="pedestrian" speed="3.99" length="1.81" shape="2890.38,6381.42 2889.91,6381.46 2889.49,6381.37 2889.11,6381.16 2888.78,6380.82"/>
    </edge>
    <edge id=":J16_0" function="internal">
        <lane id=":J16_0_0" index="0" disallow="pedestrian" speed="3.91" length="2.51" shape="2832.45,6307.16 2832.11,6306.57 2832.04,6306.00 2832.24,6305.46 2832.70,6304.96"/>
    </edge>
    <edge id=":J8_0" function="internal">
        <lane id=":J8_0_0" index="0" disallow="pedestrian" speed="6.21" length="9.05" shape="2997.65,6349.25 2999.10,6351.33 3000.82,6352.34 3002.81,6352.26 3005.07,6351.12"/>
    </edge>
    <edge id=":J8_1" function="internal">
        <lane id=":J8_1_0" index="0" disallow="pedestrian" speed="8.12" length="17.54" shape="2997.65,6349.25 2998.74,6353.25 2997.63,6356.51 2994.32,6359.01 2988.80,6360.78"/>
    </edge>
    <edge id=":J9_0" function="internal">
        <lane id=":J9_0_0" index="0" disallow="pedestrian" speed="13.89" length="0.37" shape="3092.20,6289.92 3092.29,6289.85 3092.35,6289.80 3092.41,6289.75 3092.48,6289.67"/>
    </edge>

    <edge id="E4" from="J9" to="J10" priority="-1">
        <lane id="E4_0" index="0" disallow="pedestrian" speed="13.89" length="52.41" shape="3092.48,6289.67 3127.25,6250.45"/>
    </edge>
    <edge id="E5" from="J10" to="J11" priority="-1">
        <lane id="E5_0" index="0" disallow="pedestrian" speed="13.89" length="83.90" shape="3127.50,6248.71 3092.12,6172.64"/>
    </edge>
    <edge id="E6" from="J11" to="J12" priority="-1">
        <lane id="E6_0" index="0" disallow="pedestrian" speed="13.89" length="69.37" shape="3090.81,6171.72 3021.67,6165.96"/>
    </edge>
    <edge id="E7" from="J12" to="J13" priority="-1">
        <lane id="E7_0" index="0" disallow="pedestrian" speed="13.89" length="70.08" shape="3020.99,6166.06 2955.19,6190.17"/>
    </edge>
    <edge id="E9" from="J14" to="J8" priority="-1">
        <lane id="E9_0" index="0" disallow="pedestrian" speed="13.89" length="136.99" shape="2936.20,6226.82 2997.65,6349.25"/>
    </edge>
    <edge id="edge1" from="J15" to="J16" priority="-1">
        <lane id="edge1_0" index="0" disallow="pedestrian" speed="13.89" length="92.73" shape="2888.78,6380.82 2832.45,6307.16"/>
    </edge>
    <edge id="edge2" from="J8" to="J15" priority="-1">
        <lane id="edge2_0" index="0" disallow="pedestrian" speed="13.89" length="100.56" shape="2988.80,6360.78 2890.38,6381.42"/>
    </edge>
    <edge id="edge3" from="J8" to="J9" priority="-1">
        <lane id="edge3_0" index="0" disallow="pedestrian" speed="13.89" length="106.48" shape="3005.07,6351.12 3092.20,6289.92"/>
    </edge>
    <edge id="edge4" from="J16" to="J14" priority="-1">
        <lane id="edge4_0" index="0" disallow="pedestrian" speed="13.89" length="126.69" shape="2832.70,6304.96 2930.31,6224.19"/>
    </edge>
    <edge id="edge8" from="J13" to="J14" priority="-1">
        <lane id="edge8_0" index="0" disallow="pedestrian" speed="13.89" length="27.87" shape="2954.36,6190.86 2940.24,6214.89"/>
    </edge>

    <junction id="J10" type="priority" x="3129.84" y="6249.94" incLanes="E4_0" intLanes=":J10_0_0" shape="3128.96,6248.04 3126.05,6249.39 3128.45,6251.51 3129.12,6250.43 3129.27,6249.86 3129.29,6249.27 3129.19,6248.66">
        <request index="0" response="0" foes="0" cont="0"/>
    </junction>
    <junction id="J11" type="priority" x="3092.79" y="6170.28" incLanes="E5_0" intLanes=":J11_0_0" shape="3090.67,6173.31 3093.57,6171.97 3092.93,6171.01 3092.52,6170.66 3092.05,6170.40 3091.53,6170.22 3090.94,6170.13">
        <request index="0" response="0" foes="0" cont="0"/>
    </junction>
    <junction id="J12" type="priority" x="3021.10" y="6164.31" incLanes="E6_0" intLanes=":J12_0_0" shape="3021.54,6167.56 3021.80,6164.37 3021.29,6164.34 3021.11,6164.35 3020.93,6164.39 3020.72,6164.45 3020.44,6164.55">
        <request index="0" response="0" foes="0" cont="0"/>
    </junction>
    <junction id="J13" type="priority" x="2953.56" y="6189.06" incLanes="E7_0" intLanes=":J13_0_0" shape="2955.74,6191.67 2954.64,6188.67 2953.88,6188.98 2953.63,6189.15 2953.43,6189.36 2953.22,6189.65 2952.98,6190.05">
        <request index="0" response="0" foes="0" cont="0"/>
    </junction>
    <junction id="J14" type="priority" x="2933.01" y="6224.04" incLanes="edge8_0 edge4_0" intLanes=":J14_0_0 :J14_2_0" shape="2934.77,6227.54 2937.63,6226.10 2937.64,6224.08 2938.14,6222.53 2938.97,6220.62 2940.13,6218.34 2941.62,6215.70 2938.86,6214.08 2937.35,6216.41 2936.03,6217.96 2934.72,6219.07 2933.27,6220.06 2931.52,6221.25 2929.29,6222.96 2931.33,6225.43 2932.46,6225.05 2933.03,6225.26 2933.60,6225.75 2934.18,6226.51">
        <request index="0" response="00" foes="10" cont="0"/>
        <request index="1" response="01" foes="01" cont="1"/>
    </junction>
    <junction id="J15" type="priority" x="2890.05" y="6379.85" incLanes="edge2_0" intLanes=":J15_0_0" shape="2890.71,6382.98 2890.05,6379.85 2887.51,6381.79 2888.41,6382.64 2888.92,6382.89 2889.47,6383.03 2890.07,6383.06">
        <request index="0" response="0" foes="0" cont="0"/>
    </junction>
    <junction id="J16" type="priority" x="2833.72" y="6306.19" incLanes="edge1_0" intLanes=":J16_0_0" shape="2831.18,6308.13 2833.72,6306.19 2831.68,6303.72 2830.57,6305.09 2830.37,6305.81 2830.40,6306.56 2830.67,6307.33">
        <request index="0" response="0" foes="0" cont="0"/>
    </junction>
    <junction id="J8" type="priority" x="2999.68" y="6356.86" incLanes="E9_0" intLanes=":J8_0_0 :J8_1_0" shape="3005.99,6352.43 3004.15,6349.81 3002.13,6350.69 3001.25,6350.64 3000.44,6350.27 2999.72,6349.56 2999.08,6348.53 2996.22,6349.97 2996.97,6352.14 2996.90,6354.06 2996.01,6355.73 2994.31,6357.14 2991.80,6358.30 2988.47,6359.21 2989.13,6362.34 2993.15,6361.30 2995.98,6360.13 2998.15,6358.74 3000.19,6357.05 3002.63,6354.98">
        <request index="0" response="00" foes="00" cont="0"/>
        <request index="1" response="00" foes="00" cont="0"/>
    </junction>
    <junction id="J9" type="priority" x="3093.43" y="6291.01" incLanes="edge3_0" intLanes=":J9_0_0" shape="3093.68,6290.73 3091.28,6288.61 3093.12,6291.23 3093.35,6291.06 3093.42,6291.00 3093.49,6290.93 3093.57,6290.85">
        <request index="0" response="0" foes="0" cont="0"/>
    </junction>

    <junction id=":J14_2_0" type="internal" x="2934.26" y="6224.21" incLanes=":J14_1_0 edge8_0" intLanes=":J14_0_0"/>

    <connection from="E4" to="E5" fromLane="0" toLane="0" via=":J10_0_0" dir="r" state="M"/>
    <connection from="E5" to="E6" fromLane="0" toLane="0" via=":J11_0_0" dir="r" state="M"/>
    <connection from="E6" to="E7" fromLane="0" toLane="0" via=":J12_0_0" dir="s" state="M"/>
    <connection from="E7" to="edge8" fromLane="0" toLane="0" via=":J13_0_0" dir="s" state="M"/>
    <connection from="E9" to="edge3" fromLane="0" toLane="0" via=":J8_0_0" dir="r" state="M"/>
    <connection from="E9" to="edge2" fromLane="0" toLane="0" via=":J8_1_0" dir="l" state="M"/>
    <connection from="edge1" to="edge4" fromLane="0" toLane="0" via=":J16_0_0" dir="l" state="M"/>
    <connection from="edge2" to="edge1" fromLane="0" toLane="0" via=":J15_0_0" dir="l" state="M"/>
    <connection from="edge3" to="E4" fromLane="0" toLane="0" via=":J9_0_0" dir="s" state="M"/>
    <connection from="edge4" to="E9" fromLane="0" toLane="0" via=":J14_1_0" dir="l" state="m"/>
    <connection from="edge8" to="E9" fromLane="0" toLane="0" via=":J14_0_0" dir="r" state="M"/>

    <connection from=":J10_0" to="E5" fromLane="0" toLane="0" dir="r" state="M"/>
    <connection from=":J11_0" to="E6" fromLane="0" toLane="0" dir="r" state="M"/>
    <connection from=":J12_0" to="E7" fromLane="0" toLane="0" dir="s" state="M"/>
    <connection from=":J13_0" to="edge8" fromLane="0" toLane="0" dir="s" state="M"/>
    <connection from=":J14_0" to="E9" fromLane="0" toLane="0" dir="r" state="M"/>
    <connection from=":J14_1" to="E9" fromLane="0" toLane="0" via=":J14_2_0" dir="l" state="m"/>
    <connection from=":J14_2" to="E9" fromLane="0" toLane="0" dir="l" state="M"/>
    <connection from=":J15_0" to="edge1" fromLane="0" toLane="0" dir="l" state="M"/>
    <connection from=":J16_0" to="edge4" fromLane="0" toLane="0" dir="l" state="M"/>
    <connection from=":J8_0" to="edge3" fromLane="0" toLane="0" dir="r" state="M"/>
    <connection from=":J8_1" to="edge2" fromLane="0" toLane="0" dir="l" state="M"/>
    <connection from=":J9_0" to="E4" fromLane="0" toLane="0" dir="s" state="M"/>

</net>
